<?xml version="1.0" encoding="UTF-8"?>

<net version="1.6" junctionCornerDetail="5" limitTurnSpeed="5.50" xmlns:xsi=
     "http://www.w3.org/2001/XMLSchema-instance" xsi:noNamespaceSchemaLocation=
     "http://sumo.dlr.de/xsd/net_file.xsd">

    <location netOffset="0.00,0.00" convBoundary="0.00,0.00,40000.00,0.00" 
              origBoundary="10000000000.00,10000000000.00,-10000000000.00,-10000000000.00"
              projParameter="!"/>

    <edge id="Lane" from="gneJ0" to="gneJ1" priority="1" length="40000.00">
        <lane id="Lane_0" index="0" speed="22.22" length="40000.00" shape="0.00,-4.80 40000.00,-4.80"/>
        <lane id="Lane_1" index="1" speed="22.22" length="40000.00" shape="0.00,-1.60 40000.00,-1.60"/>
    </edge>

    <junction id="gneJ0" type="dead_end" x="0.00" y="0.00" incLanes="" intLanes="" shape="0.00,0.00 0.00,-6.40"/>
    <junction id="gneJ1" type="dead_end" x="40000.00" y="0.00" incLanes="Lane_0 Lane_1" 
              intLanes="" shape="40000.00,-6.40 40000.00,0.00"/>

</net>
